data_COF-102
_audit_creation_date              0000-00-00
_audit_creation_method            'LanYouShi'
_symmetry_space_group_name_H-M    'P1'
_cell_length_a                    27.1770992
_cell_length_b                    27.1770992
_cell_length_c                    27.1770992
_cell_angle_alpha                 90.0000000
_cell_angle_beta                  90.0000000
_cell_angle_gamma                 90.0000000
loop_
_atom_site_label
_atom_site_type_symbol
_atom_site_fract_x
_atom_site_fract_y
_atom_site_fract_z
_atom_site_U_iso_or_equiv
_atom_site_adp_type
_atom_site_occupancy
        O1          O  0.8285000  0.7469300  0.3029800    0.00000       Uiso       1.00
        B2          B  0.8353300  0.7132500  0.2621600    0.00000       Uiso       1.00
        C3          C  0.9049000  0.7662901  0.2275800    0.00000       Uiso       1.00
        H4          H  0.8955200  0.7946000  0.2535200    0.00000       Uiso       1.00
        C5          C  0.8789400  0.7223100  0.2263000    0.00000       Uiso       1.00
        C6          C  0.9312000  0.6941900  0.1604900    0.00000       Uiso       1.00
        H7          H  0.9412501  0.6641500  0.1371700    0.00000       Uiso       1.00
        C8          C  0.9563400  0.7393000  0.1596000    0.00000       Uiso       1.00
        C9          C  0.8925200  0.6863000  0.1927200    0.00000       Uiso       1.00
       H10          H  0.8737700  0.6515000  0.1917600    0.00000       Uiso       1.00
       C11          C  0.9430600  0.7745900  0.1948400    0.00000       Uiso       1.00
       H12          H  0.9622300  0.8091100  0.1966000    0.00000       Uiso       1.00
       O13          O  0.3285000  0.2469300  0.8029800    0.00000       Uiso       1.00
       B14          B  0.3353300  0.2132500  0.7621600    0.00000       Uiso       1.00
       C15          C  0.4049000  0.2662900  0.7275800    0.00000       Uiso       1.00
       H16          H  0.3955200  0.2946000  0.7535200    0.00000       Uiso       1.00
       C17          C  0.3789400  0.2223100  0.7263000    0.00000       Uiso       1.00
       C18          C  0.4312000  0.1941900  0.6604900    0.00000       Uiso       1.00
       H19          H  0.4412500  0.1641500  0.6371700    0.00000       Uiso       1.00
       C20          C  0.4563400  0.2393000  0.6596000    0.00000       Uiso       1.00
       C21          C  0.3925200  0.1863000  0.6927200    0.00000       Uiso       1.00
       H22          H  0.3737700  0.1515000  0.6917600    0.00000       Uiso       1.00
       C23          C  0.4430600  0.2745900  0.6948400    0.00000       Uiso       1.00
       H24          H  0.4622300  0.3091100  0.6966000    0.00000       Uiso       1.00
       O25          O  0.6715000  0.2530700  0.8029800    0.00000       Uiso       1.00
       B26          B  0.6646700  0.2867500  0.7621600    0.00000       Uiso       1.00
       C27          C  0.5951000  0.2337100  0.7275800    0.00000       Uiso       1.00
       H28          H  0.6044800  0.2054000  0.7535200    0.00000       Uiso       1.00
       C29          C  0.6210600  0.2776900  0.7263000    0.00000       Uiso       1.00
       C30          C  0.5688000  0.3058100  0.6604900    0.00000       Uiso       1.00
       H31          H  0.5587500  0.3358500  0.6371700    0.00000       Uiso       1.00
       C32          C  0.5436600  0.2607000  0.6596000    0.00000       Uiso       1.00
       C33          C  0.6074800  0.3137000  0.6927200    0.00000       Uiso       1.00
       H34          H  0.6262300  0.3485000  0.6917600    0.00000       Uiso       1.00
       C35          C  0.5569400  0.2254100  0.6948400    0.00000       Uiso       1.00
       H36          H  0.5377700  0.1908900  0.6966000    0.00000       Uiso       1.00
       O37          O  0.1715000  0.7530699  0.3029800    0.00000       Uiso       1.00
       B38          B  0.1646700  0.7867501  0.2621600    0.00000       Uiso       1.00
       C39          C  0.0951000  0.7337100  0.2275800    0.00000       Uiso       1.00
       H40          H  0.1044800  0.7054000  0.2535200    0.00000       Uiso       1.00
       C41          C  0.1210600  0.7776900  0.2263000    0.00000       Uiso       1.00
       C42          C  0.0688000  0.8058100  0.1604900    0.00000       Uiso       1.00
       H43          H  0.0587500  0.8358500  0.1371700    0.00000       Uiso       1.00
       C44          C  0.0436600  0.7607000  0.1596000    0.00000       Uiso       1.00
       C45          C  0.1074800  0.8137000  0.1927200    0.00000       Uiso       1.00
       H46          H  0.1262300  0.8485000  0.1917600    0.00000       Uiso       1.00
       C47          C  0.0569400  0.7254100  0.1948400    0.00000       Uiso       1.00
       H48          H  0.0377700  0.6908900  0.1966000    0.00000       Uiso       1.00
       O49          O  0.1715000  0.2469300  0.1970200    0.00000       Uiso       1.00
       B50          B  0.1646700  0.2132500  0.2378400    0.00000       Uiso       1.00
       C51          C  0.0951000  0.2662900  0.2724200    0.00000       Uiso       1.00
       H52          H  0.1044800  0.2946000  0.2464800    0.00000       Uiso       1.00
       C53          C  0.1210600  0.2223100  0.2737000    0.00000       Uiso       1.00
       C54          C  0.0688000  0.1941900  0.3395100    0.00000       Uiso       1.00
       H55          H  0.0587500  0.1641500  0.3628300    0.00000       Uiso       1.00
       C56          C  0.0436600  0.2393000  0.3404000    0.00000       Uiso       1.00
       C57          C  0.1074800  0.1863000  0.3072800    0.00000       Uiso       1.00
       H58          H  0.1262300  0.1515000  0.3082400    0.00000       Uiso       1.00
       C59          C  0.0569400  0.2745900  0.3051600    0.00000       Uiso       1.00
       H60          H  0.0377700  0.3091100  0.3034000    0.00000       Uiso       1.00
       O61          O  0.6715000  0.7469300  0.6970200    0.00000       Uiso       1.00
       B62          B  0.6646700  0.7132500  0.7378400    0.00000       Uiso       1.00
       C63          C  0.5951000  0.7662901  0.7724200    0.00000       Uiso       1.00
       H64          H  0.6044800  0.7946000  0.7464800    0.00000       Uiso       1.00
       C65          C  0.6210600  0.7223100  0.7737000    0.00000       Uiso       1.00
       C66          C  0.5688000  0.6941900  0.8395100    0.00000       Uiso       1.00
       H67          H  0.5587500  0.6641500  0.8628300    0.00000       Uiso       1.00
       C68          C  0.5436600  0.7393000  0.8404000    0.00000       Uiso       1.00
       C69          C  0.6074800  0.6863000  0.8072800    0.00000       Uiso       1.00
       H70          H  0.6262300  0.6515000  0.8082400    0.00000       Uiso       1.00
       C71          C  0.5569400  0.7745900  0.8051600    0.00000       Uiso       1.00
       H72          H  0.5377700  0.8091100  0.8034000    0.00000       Uiso       1.00
       O73          O  0.3285000  0.7530699  0.6970200    0.00000       Uiso       1.00
       B74          B  0.3353300  0.7867501  0.7378400    0.00000       Uiso       1.00
       C75          C  0.4049000  0.7337100  0.7724200    0.00000       Uiso       1.00
       H76          H  0.3955200  0.7054000  0.7464800    0.00000       Uiso       1.00
       C77          C  0.3789400  0.7776900  0.7737000    0.00000       Uiso       1.00
       C78          C  0.4312000  0.8058100  0.8395100    0.00000       Uiso       1.00
       H79          H  0.4412500  0.8358500  0.8628300    0.00000       Uiso       1.00
       C80          C  0.4563400  0.7607000  0.8404000    0.00000       Uiso       1.00
       C81          C  0.3925200  0.8137000  0.8072800    0.00000       Uiso       1.00
       H82          H  0.3737700  0.8485000  0.8082400    0.00000       Uiso       1.00
       C83          C  0.4430600  0.7254100  0.8051600    0.00000       Uiso       1.00
       H84          H  0.4622300  0.6908900  0.8034000    0.00000       Uiso       1.00
       O85          O  0.8285000  0.2530700  0.1970200    0.00000       Uiso       1.00
       B86          B  0.8353300  0.2867500  0.2378400    0.00000       Uiso       1.00
       C87          C  0.9049000  0.2337100  0.2724200    0.00000       Uiso       1.00
       H88          H  0.8955200  0.2054000  0.2464800    0.00000       Uiso       1.00
       C89          C  0.8789400  0.2776900  0.2737000    0.00000       Uiso       1.00
       C90          C  0.9312000  0.3058100  0.3395100    0.00000       Uiso       1.00
       H91          H  0.9412501  0.3358500  0.3628300    0.00000       Uiso       1.00
       C92          C  0.9563400  0.2607000  0.3404000    0.00000       Uiso       1.00
       C93          C  0.8925200  0.3137000  0.3072800    0.00000       Uiso       1.00
       H94          H  0.8737700  0.3485000  0.3082400    0.00000       Uiso       1.00
       C95          C  0.9430600  0.2254100  0.3051600    0.00000       Uiso       1.00
       H96          H  0.9622300  0.1908900  0.3034000    0.00000       Uiso       1.00
       O97          O  0.3029800  0.8285000  0.7469300    0.00000       Uiso       1.00
       B98          B  0.2621600  0.8353300  0.7132500    0.00000       Uiso       1.00
       C99          C  0.2275800  0.9049000  0.7662901    0.00000       Uiso       1.00
      H100          H  0.2535200  0.8955200  0.7946000    0.00000       Uiso       1.00
      C101          C  0.2263000  0.8789400  0.7223100    0.00000       Uiso       1.00
      C102          C  0.1604900  0.9312000  0.6941900    0.00000       Uiso       1.00
      H103          H  0.1371700  0.9412501  0.6641500    0.00000       Uiso       1.00
      C104          C  0.1596000  0.9563400  0.7393000    0.00000       Uiso       1.00
      C105          C  0.1927200  0.8925200  0.6863000    0.00000       Uiso       1.00
      H106          H  0.1917600  0.8737700  0.6515000    0.00000       Uiso       1.00
      C107          C  0.1948400  0.9430600  0.7745900    0.00000       Uiso       1.00
      H108          H  0.1966000  0.9622300  0.8091100    0.00000       Uiso       1.00
      O109          O  0.8029800  0.3285000  0.2469300    0.00000       Uiso       1.00
      B110          B  0.7621600  0.3353300  0.2132500    0.00000       Uiso       1.00
      C111          C  0.7275800  0.4049000  0.2662900    0.00000       Uiso       1.00
      H112          H  0.7535200  0.3955200  0.2946000    0.00000       Uiso       1.00
      C113          C  0.7263000  0.3789400  0.2223100    0.00000       Uiso       1.00
      C114          C  0.6604900  0.4312000  0.1941900    0.00000       Uiso       1.00
      H115          H  0.6371700  0.4412500  0.1641500    0.00000       Uiso       1.00
      C116          C  0.6596000  0.4563400  0.2393000    0.00000       Uiso       1.00
      C117          C  0.6927200  0.3925200  0.1863000    0.00000       Uiso       1.00
      H118          H  0.6917600  0.3737700  0.1515000    0.00000       Uiso       1.00
      C119          C  0.6948400  0.4430600  0.2745900    0.00000       Uiso       1.00
      H120          H  0.6966000  0.4622300  0.3091100    0.00000       Uiso       1.00
      O121          O  0.8029800  0.6715000  0.2530700    0.00000       Uiso       1.00
      B122          B  0.7621600  0.6646700  0.2867500    0.00000       Uiso       1.00
      C123          C  0.7275800  0.5951000  0.2337100    0.00000       Uiso       1.00
      H124          H  0.7535200  0.6044800  0.2054000    0.00000       Uiso       1.00
      C125          C  0.7263000  0.6210600  0.2776900    0.00000       Uiso       1.00
      C126          C  0.6604900  0.5688000  0.3058100    0.00000       Uiso       1.00
      H127          H  0.6371700  0.5587500  0.3358500    0.00000       Uiso       1.00
      C128          C  0.6596000  0.5436600  0.2607000    0.00000       Uiso       1.00
      C129          C  0.6927200  0.6074800  0.3137000    0.00000       Uiso       1.00
      H130          H  0.6917600  0.6262300  0.3485000    0.00000       Uiso       1.00
      C131          C  0.6948400  0.5569400  0.2254100    0.00000       Uiso       1.00
      H132          H  0.6966000  0.5377700  0.1908900    0.00000       Uiso       1.00
      O133          O  0.3029800  0.1715000  0.7530699    0.00000       Uiso       1.00
      B134          B  0.2621600  0.1646700  0.7867501    0.00000       Uiso       1.00
      C135          C  0.2275800  0.0951000  0.7337100    0.00000       Uiso       1.00
      H136          H  0.2535200  0.1044800  0.7054000    0.00000       Uiso       1.00
      C137          C  0.2263000  0.1210600  0.7776900    0.00000       Uiso       1.00
      C138          C  0.1604900  0.0688000  0.8058100    0.00000       Uiso       1.00
      H139          H  0.1371700  0.0587500  0.8358500    0.00000       Uiso       1.00
      C140          C  0.1596000  0.0436600  0.7607000    0.00000       Uiso       1.00
      C141          C  0.1927200  0.1074800  0.8137000    0.00000       Uiso       1.00
      H142          H  0.1917600  0.1262300  0.8485000    0.00000       Uiso       1.00
      C143          C  0.1948400  0.0569400  0.7254100    0.00000       Uiso       1.00
      H144          H  0.1966000  0.0377700  0.6908900    0.00000       Uiso       1.00
      O145          O  0.1970200  0.1715000  0.2469300    0.00000       Uiso       1.00
      B146          B  0.2378400  0.1646700  0.2132500    0.00000       Uiso       1.00
      C147          C  0.2724200  0.0951000  0.2662900    0.00000       Uiso       1.00
      H148          H  0.2464800  0.1044800  0.2946000    0.00000       Uiso       1.00
      C149          C  0.2737000  0.1210600  0.2223100    0.00000       Uiso       1.00
      C150          C  0.3395100  0.0688000  0.1941900    0.00000       Uiso       1.00
      H151          H  0.3628300  0.0587500  0.1641500    0.00000       Uiso       1.00
      C152          C  0.3404000  0.0436600  0.2393000    0.00000       Uiso       1.00
      C153          C  0.3072800  0.1074800  0.1863000    0.00000       Uiso       1.00
      H154          H  0.3082400  0.1262300  0.1515000    0.00000       Uiso       1.00
      C155          C  0.3051600  0.0569400  0.2745900    0.00000       Uiso       1.00
      H156          H  0.3034000  0.0377700  0.3091100    0.00000       Uiso       1.00
      O157          O  0.6970200  0.6715000  0.7469300    0.00000       Uiso       1.00
      B158          B  0.7378400  0.6646700  0.7132500    0.00000       Uiso       1.00
      C159          C  0.7724200  0.5951000  0.7662901    0.00000       Uiso       1.00
      H160          H  0.7464800  0.6044800  0.7946000    0.00000       Uiso       1.00
      C161          C  0.7737000  0.6210600  0.7223100    0.00000       Uiso       1.00
      C162          C  0.8395100  0.5688000  0.6941900    0.00000       Uiso       1.00
      H163          H  0.8628300  0.5587500  0.6641500    0.00000       Uiso       1.00
      C164          C  0.8404000  0.5436600  0.7393000    0.00000       Uiso       1.00
      C165          C  0.8072800  0.6074800  0.6863000    0.00000       Uiso       1.00
      H166          H  0.8082400  0.6262300  0.6515000    0.00000       Uiso       1.00
      C167          C  0.8051600  0.5569400  0.7745900    0.00000       Uiso       1.00
      H168          H  0.8034000  0.5377700  0.8091100    0.00000       Uiso       1.00
      O169          O  0.6970200  0.3285000  0.7530699    0.00000       Uiso       1.00
      B170          B  0.7378400  0.3353300  0.7867501    0.00000       Uiso       1.00
      C171          C  0.7724200  0.4049000  0.7337100    0.00000       Uiso       1.00
      H172          H  0.7464800  0.3955200  0.7054000    0.00000       Uiso       1.00
      C173          C  0.7737000  0.3789400  0.7776900    0.00000       Uiso       1.00
      C174          C  0.8395100  0.4312000  0.8058100    0.00000       Uiso       1.00
      H175          H  0.8628300  0.4412500  0.8358500    0.00000       Uiso       1.00
      C176          C  0.8404000  0.4563400  0.7607000    0.00000       Uiso       1.00
      C177          C  0.8072800  0.3925200  0.8137000    0.00000       Uiso       1.00
      H178          H  0.8082400  0.3737700  0.8485000    0.00000       Uiso       1.00
      C179          C  0.8051600  0.4430600  0.7254100    0.00000       Uiso       1.00
      H180          H  0.8034000  0.4622300  0.6908900    0.00000       Uiso       1.00
      O181          O  0.1970200  0.8285000  0.2530700    0.00000       Uiso       1.00
      B182          B  0.2378400  0.8353300  0.2867500    0.00000       Uiso       1.00
      C183          C  0.2724200  0.9049000  0.2337100    0.00000       Uiso       1.00
      H184          H  0.2464800  0.8955200  0.2054000    0.00000       Uiso       1.00
      C185          C  0.2737000  0.8789400  0.2776900    0.00000       Uiso       1.00
      C186          C  0.3395100  0.9312000  0.3058100    0.00000       Uiso       1.00
      H187          H  0.3628300  0.9412501  0.3358500    0.00000       Uiso       1.00
      C188          C  0.3404000  0.9563400  0.2607000    0.00000       Uiso       1.00
      C189          C  0.3072800  0.8925200  0.3137000    0.00000       Uiso       1.00
      H190          H  0.3082400  0.8737700  0.3485000    0.00000       Uiso       1.00
      C191          C  0.3051600  0.9430600  0.2254100    0.00000       Uiso       1.00
      H192          H  0.3034000  0.9622300  0.1908900    0.00000       Uiso       1.00
      O193          O  0.7469300  0.3029800  0.8285000    0.00000       Uiso       1.00
      B194          B  0.7132500  0.2621600  0.8353300    0.00000       Uiso       1.00
      C195          C  0.7662901  0.2275800  0.9049000    0.00000       Uiso       1.00
      H196          H  0.7946000  0.2535200  0.8955200    0.00000       Uiso       1.00
      C197          C  0.7223100  0.2263000  0.8789400    0.00000       Uiso       1.00
      C198          C  0.6941900  0.1604900  0.9312000    0.00000       Uiso       1.00
      H199          H  0.6641500  0.1371700  0.9412501    0.00000       Uiso       1.00
      C200          C  0.7393000  0.1596000  0.9563400    0.00000       Uiso       1.00
      C201          C  0.6863000  0.1927200  0.8925200    0.00000       Uiso       1.00
      H202          H  0.6515000  0.1917600  0.8737700    0.00000       Uiso       1.00
      C203          C  0.7745900  0.1948400  0.9430600    0.00000       Uiso       1.00
      H204          H  0.8091100  0.1966000  0.9622300    0.00000       Uiso       1.00
      O205          O  0.2469300  0.8029800  0.3285000    0.00000       Uiso       1.00
      B206          B  0.2132500  0.7621600  0.3353300    0.00000       Uiso       1.00
      C207          C  0.2662900  0.7275800  0.4049000    0.00000       Uiso       1.00
      H208          H  0.2946000  0.7535200  0.3955200    0.00000       Uiso       1.00
      C209          C  0.2223100  0.7263000  0.3789400    0.00000       Uiso       1.00
      C210          C  0.1941900  0.6604900  0.4312000    0.00000       Uiso       1.00
      H211          H  0.1641500  0.6371700  0.4412500    0.00000       Uiso       1.00
      C212          C  0.2393000  0.6596000  0.4563400    0.00000       Uiso       1.00
      C213          C  0.1863000  0.6927200  0.3925200    0.00000       Uiso       1.00
      H214          H  0.1515000  0.6917600  0.3737700    0.00000       Uiso       1.00
      C215          C  0.2745900  0.6948400  0.4430600    0.00000       Uiso       1.00
      H216          H  0.3091100  0.6966000  0.4622300    0.00000       Uiso       1.00
      O217          O  0.2530700  0.8029800  0.6715000    0.00000       Uiso       1.00
      B218          B  0.2867500  0.7621600  0.6646700    0.00000       Uiso       1.00
      C219          C  0.2337100  0.7275800  0.5951000    0.00000       Uiso       1.00
      H220          H  0.2054000  0.7535200  0.6044800    0.00000       Uiso       1.00
      C221          C  0.2776900  0.7263000  0.6210600    0.00000       Uiso       1.00
      C222          C  0.3058100  0.6604900  0.5688000    0.00000       Uiso       1.00
      H223          H  0.3358500  0.6371700  0.5587500    0.00000       Uiso       1.00
      C224          C  0.2607000  0.6596000  0.5436600    0.00000       Uiso       1.00
      C225          C  0.3137000  0.6927200  0.6074800    0.00000       Uiso       1.00
      H226          H  0.3485000  0.6917600  0.6262300    0.00000       Uiso       1.00
      C227          C  0.2254100  0.6948400  0.5569400    0.00000       Uiso       1.00
      H228          H  0.1908900  0.6966000  0.5377700    0.00000       Uiso       1.00
      O229          O  0.7530699  0.3029800  0.1715000    0.00000       Uiso       1.00
      B230          B  0.7867501  0.2621600  0.1646700    0.00000       Uiso       1.00
      C231          C  0.7337100  0.2275800  0.0951000    0.00000       Uiso       1.00
      H232          H  0.7054000  0.2535200  0.1044800    0.00000       Uiso       1.00
      C233          C  0.7776900  0.2263000  0.1210600    0.00000       Uiso       1.00
      C234          C  0.8058100  0.1604900  0.0688000    0.00000       Uiso       1.00
      H235          H  0.8358500  0.1371700  0.0587500    0.00000       Uiso       1.00
      C236          C  0.7607000  0.1596000  0.0436600    0.00000       Uiso       1.00
      C237          C  0.8137000  0.1927200  0.1074800    0.00000       Uiso       1.00
      H238          H  0.8485000  0.1917600  0.1262300    0.00000       Uiso       1.00
      C239          C  0.7254100  0.1948400  0.0569400    0.00000       Uiso       1.00
      H240          H  0.6908900  0.1966000  0.0377700    0.00000       Uiso       1.00
      O241          O  0.2469300  0.1970200  0.1715000    0.00000       Uiso       1.00
      B242          B  0.2132500  0.2378400  0.1646700    0.00000       Uiso       1.00
      C243          C  0.2662900  0.2724200  0.0951000    0.00000       Uiso       1.00
      H244          H  0.2946000  0.2464800  0.1044800    0.00000       Uiso       1.00
      C245          C  0.2223100  0.2737000  0.1210600    0.00000       Uiso       1.00
      C246          C  0.1941900  0.3395100  0.0688000    0.00000       Uiso       1.00
      H247          H  0.1641500  0.3628300  0.0587500    0.00000       Uiso       1.00
      C248          C  0.2393000  0.3404000  0.0436600    0.00000       Uiso       1.00
      C249          C  0.1863000  0.3072800  0.1074800    0.00000       Uiso       1.00
      H250          H  0.1515000  0.3082400  0.1262300    0.00000       Uiso       1.00
      C251          C  0.2745900  0.3051600  0.0569400    0.00000       Uiso       1.00
      H252          H  0.3091100  0.3034000  0.0377700    0.00000       Uiso       1.00
      O253          O  0.7469300  0.6970200  0.6715000    0.00000       Uiso       1.00
      B254          B  0.7132500  0.7378400  0.6646700    0.00000       Uiso       1.00
      C255          C  0.7662901  0.7724200  0.5951000    0.00000       Uiso       1.00
      H256          H  0.7946000  0.7464800  0.6044800    0.00000       Uiso       1.00
      C257          C  0.7223100  0.7737000  0.6210600    0.00000       Uiso       1.00
      C258          C  0.6941900  0.8395100  0.5688000    0.00000       Uiso       1.00
      H259          H  0.6641500  0.8628300  0.5587500    0.00000       Uiso       1.00
      C260          C  0.7393000  0.8404000  0.5436600    0.00000       Uiso       1.00
      C261          C  0.6863000  0.8072800  0.6074800    0.00000       Uiso       1.00
      H262          H  0.6515000  0.8082400  0.6262300    0.00000       Uiso       1.00
      C263          C  0.7745900  0.8051600  0.5569400    0.00000       Uiso       1.00
      H264          H  0.8091100  0.8034000  0.5377700    0.00000       Uiso       1.00
      O265          O  0.7530699  0.6970200  0.3285000    0.00000       Uiso       1.00
      B266          B  0.7867501  0.7378400  0.3353300    0.00000       Uiso       1.00
      C267          C  0.7337100  0.7724200  0.4049000    0.00000       Uiso       1.00
      H268          H  0.7054000  0.7464800  0.3955200    0.00000       Uiso       1.00
      C269          C  0.7776900  0.7737000  0.3789400    0.00000       Uiso       1.00
      C270          C  0.8058100  0.8395100  0.4312000    0.00000       Uiso       1.00
      H271          H  0.8358500  0.8628300  0.4412500    0.00000       Uiso       1.00
      C272          C  0.7607000  0.8404000  0.4563400    0.00000       Uiso       1.00
      C273          C  0.8137000  0.8072800  0.3925200    0.00000       Uiso       1.00
      H274          H  0.8485000  0.8082400  0.3737700    0.00000       Uiso       1.00
      C275          C  0.7254100  0.8051600  0.4430600    0.00000       Uiso       1.00
      H276          H  0.6908900  0.8034000  0.4622300    0.00000       Uiso       1.00
      O277          O  0.2530700  0.1970200  0.8285000    0.00000       Uiso       1.00
      B278          B  0.2867500  0.2378400  0.8353300    0.00000       Uiso       1.00
      C279          C  0.2337100  0.2724200  0.9049000    0.00000       Uiso       1.00
      H280          H  0.2054000  0.2464800  0.8955200    0.00000       Uiso       1.00
      C281          C  0.2776900  0.2737000  0.8789400    0.00000       Uiso       1.00
      C282          C  0.3058100  0.3395100  0.9312000    0.00000       Uiso       1.00
      H283          H  0.3358500  0.3628300  0.9412501    0.00000       Uiso       1.00
      C284          C  0.2607000  0.3404000  0.9563400    0.00000       Uiso       1.00
      C285          C  0.3137000  0.3072800  0.8925200    0.00000       Uiso       1.00
      H286          H  0.3485000  0.3082400  0.8737700    0.00000       Uiso       1.00
      C287          C  0.2254100  0.3051600  0.9430600    0.00000       Uiso       1.00
      H288          H  0.1908900  0.3034000  0.9622300    0.00000       Uiso       1.00
      O289          O  0.9969300  0.0785000  0.5529800    0.00000       Uiso       1.00
      B290          B  0.9632500  0.0853300  0.5121600    0.00000       Uiso       1.00
      C291          C  0.0162900  0.1549000  0.4775800    0.00000       Uiso       1.00
      H292          H  0.0446000  0.1455200  0.5035200    0.00000       Uiso       1.00
      C293          C  0.9723100  0.1289400  0.4763000    0.00000       Uiso       1.00
      C294          C  0.9441900  0.1812000  0.4104900    0.00000       Uiso       1.00
      H295          H  0.9141500  0.1912500  0.3871700    0.00000       Uiso       1.00
      C296          C  0.9893000  0.2063400  0.4096000    0.00000       Uiso       1.00
      C297          C  0.9363000  0.1425200  0.4427200    0.00000       Uiso       1.00
      H298          H  0.9015000  0.1237700  0.4417600    0.00000       Uiso       1.00
      C299          C  0.0245900  0.1930600  0.4448400    0.00000       Uiso       1.00
      H300          H  0.0591100  0.2122300  0.4466000    0.00000       Uiso       1.00
      O301          O  0.4969300  0.5785000  0.0529800    0.00000       Uiso       1.00
      B302          B  0.4632500  0.5853300  0.0121600    0.00000       Uiso       1.00
      C303          C  0.5162900  0.6549000  0.9775800    0.00000       Uiso       1.00
      H304          H  0.5446000  0.6455200  0.0035200    0.00000       Uiso       1.00
      C305          C  0.4723100  0.6289400  0.9763001    0.00000       Uiso       1.00
      C306          C  0.4441900  0.6812000  0.9104900    0.00000       Uiso       1.00
      H307          H  0.4141500  0.6912500  0.8871700    0.00000       Uiso       1.00
      C308          C  0.4893000  0.7063400  0.9096000    0.00000       Uiso       1.00
      C309          C  0.4363000  0.6425200  0.9427200    0.00000       Uiso       1.00
      H310          H  0.4015000  0.6237700  0.9417600    0.00000       Uiso       1.00
      C311          C  0.5245900  0.6930600  0.9448400    0.00000       Uiso       1.00
      H312          H  0.5591100  0.7122300  0.9466000    0.00000       Uiso       1.00
      O313          O  0.5030700  0.9215000  0.0529800    0.00000       Uiso       1.00
      B314          B  0.5367500  0.9146701  0.0121600    0.00000       Uiso       1.00
      C315          C  0.4837100  0.8450999  0.9775800    0.00000       Uiso       1.00
      H316          H  0.4554000  0.8544800  0.0035200    0.00000       Uiso       1.00
      C317          C  0.5276900  0.8710600  0.9763001    0.00000       Uiso       1.00
      C318          C  0.5558100  0.8188000  0.9104900    0.00000       Uiso       1.00
      H319          H  0.5858500  0.8087500  0.8871700    0.00000       Uiso       1.00
      C320          C  0.5107000  0.7936600  0.9096000    0.00000       Uiso       1.00
      C321          C  0.5637000  0.8574800  0.9427200    0.00000       Uiso       1.00
      H322          H  0.5985000  0.8762299  0.9417600    0.00000       Uiso       1.00
      C323          C  0.4754100  0.8069400  0.9448400    0.00000       Uiso       1.00
      H324          H  0.4408900  0.7877700  0.9466000    0.00000       Uiso       1.00
      O325          O  0.0030700  0.4215000  0.5529800    0.00000       Uiso       1.00
      B326          B  0.0367500  0.4146700  0.5121600    0.00000       Uiso       1.00
      C327          C  0.9837100  0.3451000  0.4775800    0.00000       Uiso       1.00
      H328          H  0.9554000  0.3544800  0.5035200    0.00000       Uiso       1.00
      C329          C  0.0276900  0.3710600  0.4763000    0.00000       Uiso       1.00
      C330          C  0.0558100  0.3188000  0.4104900    0.00000       Uiso       1.00
      H331          H  0.0858500  0.3087500  0.3871700    0.00000       Uiso       1.00
      C332          C  0.0107000  0.2936600  0.4096000    0.00000       Uiso       1.00
      C333          C  0.0637000  0.3574800  0.4427200    0.00000       Uiso       1.00
      H334          H  0.0985000  0.3762300  0.4417600    0.00000       Uiso       1.00
      C335          C  0.9754100  0.3069400  0.4448400    0.00000       Uiso       1.00
      H336          H  0.9408900  0.2877700  0.4466000    0.00000       Uiso       1.00
      O337          O  0.4969300  0.4215000  0.4470200    0.00000       Uiso       1.00
      B338          B  0.4632500  0.4146700  0.4878400    0.00000       Uiso       1.00
      C339          C  0.5162900  0.3451000  0.5224200    0.00000       Uiso       1.00
      H340          H  0.5446000  0.3544800  0.4964800    0.00000       Uiso       1.00
      C341          C  0.4723100  0.3710600  0.5237000    0.00000       Uiso       1.00
      C342          C  0.4441900  0.3188000  0.5895100    0.00000       Uiso       1.00
      H343          H  0.4141500  0.3087500  0.6128300    0.00000       Uiso       1.00
      C344          C  0.4893000  0.2936600  0.5904000    0.00000       Uiso       1.00
      C345          C  0.4363000  0.3574800  0.5572800    0.00000       Uiso       1.00
      H346          H  0.4015000  0.3762300  0.5582400    0.00000       Uiso       1.00
      C347          C  0.5245900  0.3069400  0.5551600    0.00000       Uiso       1.00
      H348          H  0.5591100  0.2877700  0.5534000    0.00000       Uiso       1.00
      O349          O  0.9969300  0.9215000  0.9470200    0.00000       Uiso       1.00
      B350          B  0.9632500  0.9146701  0.9878400    0.00000       Uiso       1.00
      C351          C  0.0162900  0.8450999  0.0224200    0.00000       Uiso       1.00
      H352          H  0.0446000  0.8544800  0.9964800    0.00000       Uiso       1.00
      C353          C  0.9723100  0.8710600  0.0237000    0.00000       Uiso       1.00
      C354          C  0.9441900  0.8188000  0.0895100    0.00000       Uiso       1.00
      H355          H  0.9141500  0.8087500  0.1128300    0.00000       Uiso       1.00
      C356          C  0.9893000  0.7936600  0.0904000    0.00000       Uiso       1.00
      C357          C  0.9363000  0.8574800  0.0572800    0.00000       Uiso       1.00
      H358          H  0.9015000  0.8762299  0.0582400    0.00000       Uiso       1.00
      C359          C  0.0245900  0.8069400  0.0551600    0.00000       Uiso       1.00
      H360          H  0.0591100  0.7877700  0.0534000    0.00000       Uiso       1.00
      O361          O  0.0030700  0.5785000  0.9470200    0.00000       Uiso       1.00
      B362          B  0.0367500  0.5853300  0.9878400    0.00000       Uiso       1.00
      C363          C  0.9837100  0.6549000  0.0224200    0.00000       Uiso       1.00
      H364          H  0.9554000  0.6455200  0.9964800    0.00000       Uiso       1.00
      C365          C  0.0276900  0.6289400  0.0237000    0.00000       Uiso       1.00
      C366          C  0.0558100  0.6812000  0.0895100    0.00000       Uiso       1.00
      H367          H  0.0858500  0.6912500  0.1128300    0.00000       Uiso       1.00
      C368          C  0.0107000  0.7063400  0.0904000    0.00000       Uiso       1.00
      C369          C  0.0637000  0.6425200  0.0572800    0.00000       Uiso       1.00
      H370          H  0.0985000  0.6237700  0.0582400    0.00000       Uiso       1.00
      C371          C  0.9754100  0.6930600  0.0551600    0.00000       Uiso       1.00
      H372          H  0.9408900  0.7122300  0.0534000    0.00000       Uiso       1.00
      O373          O  0.5030700  0.0785000  0.4470200    0.00000       Uiso       1.00
      B374          B  0.5367500  0.0853300  0.4878400    0.00000       Uiso       1.00
      C375          C  0.4837100  0.1549000  0.5224200    0.00000       Uiso       1.00
      H376          H  0.4554000  0.1455200  0.4964800    0.00000       Uiso       1.00
      C377          C  0.5276900  0.1289400  0.5237000    0.00000       Uiso       1.00
      C378          C  0.5558100  0.1812000  0.5895100    0.00000       Uiso       1.00
      H379          H  0.5858500  0.1912500  0.6128300    0.00000       Uiso       1.00
      C380          C  0.5107000  0.2063400  0.5904000    0.00000       Uiso       1.00
      C381          C  0.5637000  0.1425200  0.5572800    0.00000       Uiso       1.00
      H382          H  0.5985000  0.1237700  0.5582400    0.00000       Uiso       1.00
      C383          C  0.4754100  0.1930600  0.5551600    0.00000       Uiso       1.00
      H384          H  0.4408900  0.2122300  0.5534000    0.00000       Uiso       1.00
      O385          O  0.0785000  0.5529800  0.9969300    0.00000       Uiso       1.00
      B386          B  0.0853300  0.5121600  0.9632500    0.00000       Uiso       1.00
      C387          C  0.1549000  0.4775800  0.0162900    0.00000       Uiso       1.00
      H388          H  0.1455200  0.5035200  0.0446000    0.00000       Uiso       1.00
      C389          C  0.1289400  0.4763000  0.9723100    0.00000       Uiso       1.00
      C390          C  0.1812000  0.4104900  0.9441900    0.00000       Uiso       1.00
      H391          H  0.1912500  0.3871700  0.9141500    0.00000       Uiso       1.00
      C392          C  0.2063400  0.4096000  0.9893000    0.00000       Uiso       1.00
      C393          C  0.1425200  0.4427200  0.9363000    0.00000       Uiso       1.00
      H394          H  0.1237700  0.4417600  0.9015000    0.00000       Uiso       1.00
      C395          C  0.1930600  0.4448400  0.0245900    0.00000       Uiso       1.00
      H396          H  0.2122300  0.4466000  0.0591100    0.00000       Uiso       1.00
      O397          O  0.5785000  0.0529800  0.4969300    0.00000       Uiso       1.00
      B398          B  0.5853300  0.0121600  0.4632500    0.00000       Uiso       1.00
      C399          C  0.6549000  0.9775800  0.5162900    0.00000       Uiso       1.00
      H400          H  0.6455200  0.0035200  0.5446000    0.00000       Uiso       1.00
      C401          C  0.6289400  0.9763001  0.4723100    0.00000       Uiso       1.00
      C402          C  0.6812000  0.9104900  0.4441900    0.00000       Uiso       1.00
      H403          H  0.6912500  0.8871700  0.4141500    0.00000       Uiso       1.00
      C404          C  0.7063400  0.9096000  0.4893000    0.00000       Uiso       1.00
      C405          C  0.6425200  0.9427200  0.4363000    0.00000       Uiso       1.00
      H406          H  0.6237700  0.9417600  0.4015000    0.00000       Uiso       1.00
      C407          C  0.6930600  0.9448400  0.5245900    0.00000       Uiso       1.00
      H408          H  0.7122300  0.9466000  0.5591100    0.00000       Uiso       1.00
      O409          O  0.9215000  0.0529800  0.5030700    0.00000       Uiso       1.00
      B410          B  0.9146701  0.0121600  0.5367500    0.00000       Uiso       1.00
      C411          C  0.8450999  0.9775800  0.4837100    0.00000       Uiso       1.00
      H412          H  0.8544800  0.0035200  0.4554000    0.00000       Uiso       1.00
      C413          C  0.8710600  0.9763001  0.5276900    0.00000       Uiso       1.00
      C414          C  0.8188000  0.9104900  0.5558100    0.00000       Uiso       1.00
      H415          H  0.8087500  0.8871700  0.5858500    0.00000       Uiso       1.00
      C416          C  0.7936600  0.9096000  0.5107000    0.00000       Uiso       1.00
      C417          C  0.8574800  0.9427200  0.5637000    0.00000       Uiso       1.00
      H418          H  0.8762299  0.9417600  0.5985000    0.00000       Uiso       1.00
      C419          C  0.8069400  0.9448400  0.4754100    0.00000       Uiso       1.00
      H420          H  0.7877700  0.9466000  0.4408900    0.00000       Uiso       1.00
      O421          O  0.4215000  0.5529800  0.0030700    0.00000       Uiso       1.00
      B422          B  0.4146700  0.5121600  0.0367500    0.00000       Uiso       1.00
      C423          C  0.3451000  0.4775800  0.9837100    0.00000       Uiso       1.00
      H424          H  0.3544800  0.5035200  0.9554000    0.00000       Uiso       1.00
      C425          C  0.3710600  0.4763000  0.0276900    0.00000       Uiso       1.00
      C426          C  0.3188000  0.4104900  0.0558100    0.00000       Uiso       1.00
      H427          H  0.3087500  0.3871700  0.0858500    0.00000       Uiso       1.00
      C428          C  0.2936600  0.4096000  0.0107000    0.00000       Uiso       1.00
      C429          C  0.3574800  0.4427200  0.0637000    0.00000       Uiso       1.00
      H430          H  0.3762300  0.4417600  0.0985000    0.00000       Uiso       1.00
      C431          C  0.3069400  0.4448400  0.9754100    0.00000       Uiso       1.00
      H432          H  0.2877700  0.4466000  0.9408900    0.00000       Uiso       1.00
      O433          O  0.4215000  0.4470200  0.4969300    0.00000       Uiso       1.00
      B434          B  0.4146700  0.4878400  0.4632500    0.00000       Uiso       1.00
      C435          C  0.3451000  0.5224200  0.5162900    0.00000       Uiso       1.00
      H436          H  0.3544800  0.4964800  0.5446000    0.00000       Uiso       1.00
      C437          C  0.3710600  0.5237000  0.4723100    0.00000       Uiso       1.00
      C438          C  0.3188000  0.5895100  0.4441900    0.00000       Uiso       1.00
      H439          H  0.3087500  0.6128300  0.4141500    0.00000       Uiso       1.00
      C440          C  0.2936600  0.5904000  0.4893000    0.00000       Uiso       1.00
      C441          C  0.3574800  0.5572800  0.4363000    0.00000       Uiso       1.00
      H442          H  0.3762300  0.5582400  0.4015000    0.00000       Uiso       1.00
      C443          C  0.3069400  0.5551600  0.5245900    0.00000       Uiso       1.00
      H444          H  0.2877700  0.5534000  0.5591100    0.00000       Uiso       1.00
      O445          O  0.9215000  0.9470200  0.9969300    0.00000       Uiso       1.00
      B446          B  0.9146701  0.9878400  0.9632500    0.00000       Uiso       1.00
      C447          C  0.8450999  0.0224200  0.0162900    0.00000       Uiso       1.00
      H448          H  0.8544800  0.9964800  0.0446000    0.00000       Uiso       1.00
      C449          C  0.8710600  0.0237000  0.9723100    0.00000       Uiso       1.00
      C450          C  0.8188000  0.0895100  0.9441900    0.00000       Uiso       1.00
      H451          H  0.8087500  0.1128300  0.9141500    0.00000       Uiso       1.00
      C452          C  0.7936600  0.0904000  0.9893000    0.00000       Uiso       1.00
      C453          C  0.8574800  0.0572800  0.9363000    0.00000       Uiso       1.00
      H454          H  0.8762299  0.0582400  0.9015000    0.00000       Uiso       1.00
      C455          C  0.8069400  0.0551600  0.0245900    0.00000       Uiso       1.00
      H456          H  0.7877700  0.0534000  0.0591100    0.00000       Uiso       1.00
      O457          O  0.5785000  0.9470200  0.0030700    0.00000       Uiso       1.00
      B458          B  0.5853300  0.9878400  0.0367500    0.00000       Uiso       1.00
      C459          C  0.6549000  0.0224200  0.9837100    0.00000       Uiso       1.00
      H460          H  0.6455200  0.9964800  0.9554000    0.00000       Uiso       1.00
      C461          C  0.6289400  0.0237000  0.0276900    0.00000       Uiso       1.00
      C462          C  0.6812000  0.0895100  0.0558100    0.00000       Uiso       1.00
      H463          H  0.6912500  0.1128300  0.0858500    0.00000       Uiso       1.00
      C464          C  0.7063400  0.0904000  0.0107000    0.00000       Uiso       1.00
      C465          C  0.6425200  0.0572800  0.0637000    0.00000       Uiso       1.00
      H466          H  0.6237700  0.0582400  0.0985000    0.00000       Uiso       1.00
      C467          C  0.6930600  0.0551600  0.9754100    0.00000       Uiso       1.00
      H468          H  0.7122300  0.0534000  0.9408900    0.00000       Uiso       1.00
      O469          O  0.0785000  0.4470200  0.5030700    0.00000       Uiso       1.00
      B470          B  0.0853300  0.4878400  0.5367500    0.00000       Uiso       1.00
      C471          C  0.1549000  0.5224200  0.4837100    0.00000       Uiso       1.00
      H472          H  0.1455200  0.4964800  0.4554000    0.00000       Uiso       1.00
      C473          C  0.1289400  0.5237000  0.5276900    0.00000       Uiso       1.00
      C474          C  0.1812000  0.5895100  0.5558100    0.00000       Uiso       1.00
      H475          H  0.1912500  0.6128300  0.5858500    0.00000       Uiso       1.00
      C476          C  0.2063400  0.5904000  0.5107000    0.00000       Uiso       1.00
      C477          C  0.1425200  0.5572800  0.5637000    0.00000       Uiso       1.00
      H478          H  0.1237700  0.5582400  0.5985000    0.00000       Uiso       1.00
      C479          C  0.1930600  0.5551600  0.4754100    0.00000       Uiso       1.00
      H480          H  0.2122300  0.5534000  0.4408900    0.00000       Uiso       1.00
      O481          O  0.5529800  0.9969300  0.0785000    0.00000       Uiso       1.00
      B482          B  0.5121600  0.9632500  0.0853300    0.00000       Uiso       1.00
      C483          C  0.4775800  0.0162900  0.1549000    0.00000       Uiso       1.00
      H484          H  0.5035200  0.0446000  0.1455200    0.00000       Uiso       1.00
      C485          C  0.4763000  0.9723100  0.1289400    0.00000       Uiso       1.00
      C486          C  0.4104900  0.9441900  0.1812000    0.00000       Uiso       1.00
      H487          H  0.3871700  0.9141500  0.1912500    0.00000       Uiso       1.00
      C488          C  0.4096000  0.9893000  0.2063400    0.00000       Uiso       1.00
      C489          C  0.4427200  0.9363000  0.1425200    0.00000       Uiso       1.00
      H490          H  0.4417600  0.9015000  0.1237700    0.00000       Uiso       1.00
      C491          C  0.4448400  0.0245900  0.1930600    0.00000       Uiso       1.00
      H492          H  0.4466000  0.0591100  0.2122300    0.00000       Uiso       1.00
      O493          O  0.0529800  0.4969300  0.5785000    0.00000       Uiso       1.00
      B494          B  0.0121600  0.4632500  0.5853300    0.00000       Uiso       1.00
      C495          C  0.9775800  0.5162900  0.6549000    0.00000       Uiso       1.00
      H496          H  0.0035200  0.5446000  0.6455200    0.00000       Uiso       1.00
      C497          C  0.9763001  0.4723100  0.6289400    0.00000       Uiso       1.00
      C498          C  0.9104900  0.4441900  0.6812000    0.00000       Uiso       1.00
      H499          H  0.8871700  0.4141500  0.6912500    0.00000       Uiso       1.00
      C500          C  0.9096000  0.4893000  0.7063400    0.00000       Uiso       1.00
      C501          C  0.9427200  0.4363000  0.6425200    0.00000       Uiso       1.00
      H502          H  0.9417600  0.4015000  0.6237700    0.00000       Uiso       1.00
      C503          C  0.9448400  0.5245900  0.6930600    0.00000       Uiso       1.00
      H504          H  0.9466000  0.5591100  0.7122300    0.00000       Uiso       1.00
      O505          O  0.0529800  0.5030700  0.9215000    0.00000       Uiso       1.00
      B506          B  0.0121600  0.5367500  0.9146701    0.00000       Uiso       1.00
      C507          C  0.9775800  0.4837100  0.8450999    0.00000       Uiso       1.00
      H508          H  0.0035200  0.4554000  0.8544800    0.00000       Uiso       1.00
      C509          C  0.9763001  0.5276900  0.8710600    0.00000       Uiso       1.00
      C510          C  0.9104900  0.5558100  0.8188000    0.00000       Uiso       1.00
      H511          H  0.8871700  0.5858500  0.8087500    0.00000       Uiso       1.00
      C512          C  0.9096000  0.5107000  0.7936600    0.00000       Uiso       1.00
      C513          C  0.9427200  0.5637000  0.8574800    0.00000       Uiso       1.00
      H514          H  0.9417600  0.5985000  0.8762299    0.00000       Uiso       1.00
      C515          C  0.9448400  0.4754100  0.8069400    0.00000       Uiso       1.00
      H516          H  0.9466000  0.4408900  0.7877700    0.00000       Uiso       1.00
      O517          O  0.5529800  0.0030700  0.4215000    0.00000       Uiso       1.00
      B518          B  0.5121600  0.0367500  0.4146700    0.00000       Uiso       1.00
      C519          C  0.4775800  0.9837100  0.3451000    0.00000       Uiso       1.00
      H520          H  0.5035200  0.9554000  0.3544800    0.00000       Uiso       1.00
      C521          C  0.4763000  0.0276900  0.3710600    0.00000       Uiso       1.00
      C522          C  0.4104900  0.0558100  0.3188000    0.00000       Uiso       1.00
      H523          H  0.3871700  0.0858500  0.3087500    0.00000       Uiso       1.00
      C524          C  0.4096000  0.0107000  0.2936600    0.00000       Uiso       1.00
      C525          C  0.4427200  0.0637000  0.3574800    0.00000       Uiso       1.00
      H526          H  0.4417600  0.0985000  0.3762300    0.00000       Uiso       1.00
      C527          C  0.4448400  0.9754100  0.3069400    0.00000       Uiso       1.00
      H528          H  0.4466000  0.9408900  0.2877700    0.00000       Uiso       1.00
      O529          O  0.4470200  0.4969300  0.4215000    0.00000       Uiso       1.00
      B530          B  0.4878400  0.4632500  0.4146700    0.00000       Uiso       1.00
      C531          C  0.5224200  0.5162900  0.3451000    0.00000       Uiso       1.00
      H532          H  0.4964800  0.5446000  0.3544800    0.00000       Uiso       1.00
      C533          C  0.5237000  0.4723100  0.3710600    0.00000       Uiso       1.00
      C534          C  0.5895100  0.4441900  0.3188000    0.00000       Uiso       1.00
      H535          H  0.6128300  0.4141500  0.3087500    0.00000       Uiso       1.00
      C536          C  0.5904000  0.4893000  0.2936600    0.00000       Uiso       1.00
      C537          C  0.5572800  0.4363000  0.3574800    0.00000       Uiso       1.00
      H538          H  0.5582400  0.4015000  0.3762300    0.00000       Uiso       1.00
      C539          C  0.5551600  0.5245900  0.3069400    0.00000       Uiso       1.00
      H540          H  0.5534000  0.5591100  0.2877700    0.00000       Uiso       1.00
      O541          O  0.9470200  0.9969300  0.9215000    0.00000       Uiso       1.00
      B542          B  0.9878400  0.9632500  0.9146701    0.00000       Uiso       1.00
      C543          C  0.0224200  0.0162900  0.8450999    0.00000       Uiso       1.00
      H544          H  0.9964800  0.0446000  0.8544800    0.00000       Uiso       1.00
      C545          C  0.0237000  0.9723100  0.8710600    0.00000       Uiso       1.00
      C546          C  0.0895100  0.9441900  0.8188000    0.00000       Uiso       1.00
      H547          H  0.1128300  0.9141500  0.8087500    0.00000       Uiso       1.00
      C548          C  0.0904000  0.9893000  0.7936600    0.00000       Uiso       1.00
      C549          C  0.0572800  0.9363000  0.8574800    0.00000       Uiso       1.00
      H550          H  0.0582400  0.9015000  0.8762299    0.00000       Uiso       1.00
      C551          C  0.0551600  0.0245900  0.8069400    0.00000       Uiso       1.00
      H552          H  0.0534000  0.0591100  0.7877700    0.00000       Uiso       1.00
      O553          O  0.9470200  0.0030700  0.5785000    0.00000       Uiso       1.00
      B554          B  0.9878400  0.0367500  0.5853300    0.00000       Uiso       1.00
      C555          C  0.0224200  0.9837100  0.6549000    0.00000       Uiso       1.00
      H556          H  0.9964800  0.9554000  0.6455200    0.00000       Uiso       1.00
      C557          C  0.0237000  0.0276900  0.6289400    0.00000       Uiso       1.00
      C558          C  0.0895100  0.0558100  0.6812000    0.00000       Uiso       1.00
      H559          H  0.1128300  0.0858500  0.6912500    0.00000       Uiso       1.00
      C560          C  0.0904000  0.0107000  0.7063400    0.00000       Uiso       1.00
      C561          C  0.0572800  0.0637000  0.6425200    0.00000       Uiso       1.00
      H562          H  0.0582400  0.0985000  0.6237700    0.00000       Uiso       1.00
      C563          C  0.0551600  0.9754100  0.6930600    0.00000       Uiso       1.00
      H564          H  0.0534000  0.9408900  0.7122300    0.00000       Uiso       1.00
      O565          O  0.4470200  0.5030700  0.0785000    0.00000       Uiso       1.00
      B566          B  0.4878400  0.5367500  0.0853300    0.00000       Uiso       1.00
      C567          C  0.5224200  0.4837100  0.1549000    0.00000       Uiso       1.00
      H568          H  0.4964800  0.4554000  0.1455200    0.00000       Uiso       1.00
      C569          C  0.5237000  0.5276900  0.1289400    0.00000       Uiso       1.00
      C570          C  0.5895100  0.5558100  0.1812000    0.00000       Uiso       1.00
      H571          H  0.6128300  0.5858500  0.1912500    0.00000       Uiso       1.00
      C572          C  0.5904000  0.5107000  0.2063400    0.00000       Uiso       1.00
      C573          C  0.5572800  0.5637000  0.1425200    0.00000       Uiso       1.00
      H574          H  0.5582400  0.5985000  0.1237700    0.00000       Uiso       1.00
      C575          C  0.5551600  0.4754100  0.1930600    0.00000       Uiso       1.00
      H576          H  0.5534000  0.4408900  0.2122300    0.00000       Uiso       1.00
      C577          C  0.0000000  0.7500000  0.1250000    0.00000       Uiso       1.00
      C578          C  0.5000000  0.2500000  0.6250000    0.00000       Uiso       1.00
      C579          C  0.0000000  0.2500000  0.3750000    0.00000       Uiso       1.00
      C580          C  0.5000000  0.7500000  0.8750000    0.00000       Uiso       1.00
      C581          C  0.1250000  0.0000000  0.7500000    0.00000       Uiso       1.00
      C582          C  0.6250000  0.5000000  0.2500000    0.00000       Uiso       1.00
      C583          C  0.3750000  0.0000000  0.2500000    0.00000       Uiso       1.00
      C584          C  0.8750000  0.5000000  0.7500000    0.00000       Uiso       1.00
      C585          C  0.7500000  0.1250000  0.0000000    0.00000       Uiso       1.00
      C586          C  0.2500000  0.6250000  0.5000000    0.00000       Uiso       1.00
      C587          C  0.2500000  0.3750000  0.0000000    0.00000       Uiso       1.00
      C588          C  0.7500000  0.8750000  0.5000000    0.00000       Uiso       1.00
