data_IRMOF-1_PM
_symmetry_space_group_name_H-M    'P1'
_cell_length_a    25.832000
_cell_length_b    25.832000
_cell_length_c    25.832000
_cell_angle_alpha    90.000000
_cell_angle_beta    90.000000
_cell_angle_gamma    90.000000
_symmetry_Int_Tables_number 1

loop_
_symmetry_equiv_pos_as_xyz
'x,y,z'

loop_
_atom_site_label
_atom_site_type_symbol
_atom_site_fract_x
_atom_site_fract_y
_atom_site_fract_z
Zn1    Zn    0.293380    0.206620    0.206620
H      H     0.303380    0.206620    0.206620
Zn2    Zn    0.706620    0.793380    0.206620
Zn3    Zn    0.706620    0.206620    0.793380
Zn4    Zn    0.293380    0.793380    0.793380
Zn5    Zn    0.206620    0.293380    0.206620
Zn6    Zn    0.206620    0.706620    0.793380
Zn7 Zn    0.793380    0.706620    0.206620
Zn8    Zn    0.793380    0.293380    0.793380
Zn9    Zn    0.206620    0.206620    0.293380
Zn10    Zn    0.793380    0.206620    0.706620
Zn11    Zn    0.206620    0.793380    0.706620
Zn12    Zn    0.793380    0.793380    0.293380
Zn13    Zn    0.206620    0.293380    0.793380
Zn14    Zn    0.793380    0.706620    0.793380
Zn15    Zn    0.206620    0.706620    0.206620
Zn16    Zn    0.793380    0.293380    0.206620
Zn17    Zn    0.293380    0.206620    0.793380
Zn18    Zn    0.706620    0.206620    0.206620
Zn19    Zn    0.706620    0.793380    0.793380
Zn20    Zn    0.293380    0.793380    0.206620
Zn21    Zn    0.206620    0.206620    0.706620
Zn22    Zn    0.206620    0.793380    0.293380
Zn23    Zn    0.793380    0.206620    0.293380
Zn24    Zn    0.793380    0.793380    0.706620
Zn25    Zn    0.293380    0.706620    0.706620
Zn26    Zn    0.706620    0.293380    0.706620
Zn27    Zn    0.706620    0.706620    0.293380
Zn28    Zn    0.293380    0.293380    0.293380
Zn29    Zn    0.293380    0.706620    0.293380
Zn30    Zn    0.706620    0.706620    0.706620
Zn31    Zn    0.706620    0.293380    0.293380
Zn32    Zn    0.293380    0.293380    0.706620
O1    O    0.250000    0.250000    0.250000
O2    O    0.750000    0.750000    0.250000
O3    O    0.750000    0.250000    0.750000
O4    O    0.250000    0.750000    0.750000
O5    O    0.250000    0.250000    0.750000
O6    O    0.750000    0.750000    0.750000
O7    O    0.250000    0.750000    0.250000
O8    O    0.750000    0.250000    0.250000
O9    O    0.281870    0.218130    0.134000
O10    O    0.718130    0.781870    0.134000
O11    O    0.718130    0.218130    0.866000
O12    O    0.281870    0.781870    0.866000
O13    O    0.134000    0.281870    0.218130
O14    O    0.134000    0.718130    0.781870
O15    O    0.866000    0.718130    0.218130
O16    O    0.866000    0.281870    0.781870
O17    O    0.218130    0.134000    0.281870
O18    O    0.781870    0.134000    0.718130
O19    O    0.218130    0.866000    0.718130
O20    O    0.781870    0.866000    0.281870
O21    O    0.218130    0.281870    0.866000
O22    O    0.781870    0.718130    0.866000
O23    O    0.218130    0.718130    0.134000
O24    O    0.781870    0.281870    0.134000
O25    O    0.281870    0.134000    0.781870
O26    O    0.718130    0.134000    0.218130
O27    O    0.718130    0.866000    0.781870
O28    O    0.281870    0.866000    0.218130
O29    O    0.134000    0.218130    0.718130
O30    O    0.134000    0.781870    0.281870
O31    O    0.866000    0.218130    0.281870
O32    O    0.866000    0.781870    0.718130
O33    O    0.281870    0.718130    0.634000
O34    O    0.718130    0.281870    0.634000
O35    O    0.718130    0.718130    0.366000
O36    O    0.281870    0.281870    0.366000
O37    O    0.134000    0.781870    0.718130
O38    O    0.134000    0.218130    0.281870
O39    O    0.866000    0.218130    0.718130
O40    O    0.866000    0.781870    0.281870
O41    O    0.218130    0.634000    0.781870
O42    O    0.781870    0.634000    0.218130
O43    O    0.218130    0.366000    0.218130
O44    O    0.781870    0.366000    0.781870
O45    O    0.218130    0.781870    0.366000
O46    O    0.781870    0.218130    0.366000
O47    O    0.218130    0.218130    0.634000
O48    O    0.781870    0.781870    0.634000
O49    O    0.281870    0.634000    0.281870
O50    O    0.718130    0.634000    0.718130
O51    O    0.718130    0.366000    0.281870
O52    O    0.281870    0.366000    0.718130
O53    O    0.134000    0.718130    0.218130
O54    O    0.134000    0.281870    0.781870
O55    O    0.866000    0.718130    0.781870
O56    O    0.866000    0.281870    0.218130
O57    O    0.781870    0.218130    0.634000
O58    O    0.218130    0.781870    0.634000
O59    O    0.218130    0.218130    0.366000
O60    O    0.781870    0.781870    0.366000
O61    O    0.634000    0.281870    0.718130
O62    O    0.634000    0.718130    0.281870
O63    O    0.366000    0.718130    0.718130
O64    O    0.366000    0.281870    0.281870
O65    O    0.718130    0.134000    0.781870
O66    O    0.281870    0.134000    0.218130
O67    O    0.718130    0.866000    0.218130
O68    O    0.281870    0.866000    0.781870
O69    O    0.718130    0.281870    0.366000
O70    O    0.281870    0.718130    0.366000
O71    O    0.718130    0.718130    0.634000
O72    O    0.281870    0.281870    0.634000
O73    O    0.781870    0.134000    0.281870
O74    O    0.218130    0.134000    0.718130
O75    O    0.218130    0.866000    0.281870
O76    O    0.781870    0.866000    0.718130
O77    O    0.634000    0.218130    0.218130
O78    O    0.634000    0.781870    0.781870
O79    O    0.366000    0.218130    0.781870
O80    O    0.366000    0.781870    0.218130
O81    O    0.781870    0.718130    0.134000
O82    O    0.218130    0.281870    0.134000
O83    O    0.218130    0.718130    0.866000
O84    O    0.781870    0.281870    0.866000
O85    O    0.634000    0.781870    0.218130
O86    O    0.634000    0.218130    0.781870
O87    O    0.366000    0.218130    0.218130
O88    O    0.366000    0.781870    0.781870
O89    O    0.718130    0.634000    0.281870
O90    O    0.281870    0.634000    0.718130
O91    O    0.718130    0.366000    0.718130
O92    O    0.281870    0.366000    0.281870
O93    O    0.718130    0.781870    0.866000
O94    O    0.281870    0.218130    0.866000
O95    O    0.718130    0.218130    0.134000
O96    O    0.281870    0.781870    0.134000
O97    O    0.781870    0.634000    0.781870
O98    O    0.218130    0.634000    0.218130
O99    O    0.218130    0.366000    0.781870
O100    O    0.781870    0.366000    0.218130
O101    O    0.634000    0.718130    0.718130
O102    O    0.634000    0.281870    0.281870
O103    O    0.366000    0.718130    0.281870
O104    O    0.366000    0.281870    0.718130
C1    C    0.250000    0.250000    0.111300
C2    C    0.750000    0.750000    0.111300
C3    C    0.750000    0.250000    0.888700
C4    C    0.250000    0.750000    0.888700
C5    C    0.111300    0.250000    0.250000
C6    C    0.111300    0.750000    0.750000
C7    C    0.888700    0.750000    0.250000
C8    C    0.888700    0.250000    0.750000
C9    C    0.250000    0.111300    0.250000
C10    C    0.750000    0.111300    0.750000
C11    C    0.250000    0.888700    0.750000
C12    C    0.750000    0.888700    0.250000
C13    C    0.250000    0.250000    0.888700
C14    C    0.750000    0.750000    0.888700
C15    C    0.250000    0.750000    0.111300
C16    C    0.750000    0.250000    0.111300
C17    C    0.250000    0.111300    0.750000
C18    C    0.750000    0.111300    0.250000
C19    C    0.750000    0.888700    0.750000
C20    C    0.250000    0.888700    0.250000
C21    C    0.111300    0.250000    0.750000
C22    C    0.111300    0.750000    0.250000
C23    C    0.888700    0.250000    0.250000
C24    C    0.888700    0.750000    0.750000
C25    C    0.250000    0.750000    0.611300
C26    C    0.750000    0.250000    0.611300
C27    C    0.750000    0.750000    0.388700
C28    C    0.250000    0.250000    0.388700
C29    C    0.250000    0.611300    0.750000
C30    C    0.750000    0.611300    0.250000
C31    C    0.250000    0.388700    0.250000
C32    C    0.750000    0.388700    0.750000
C33    C    0.250000    0.750000    0.388700
C34    C    0.750000    0.250000    0.388700
C35    C    0.250000    0.250000    0.611300
C36    C    0.750000    0.750000    0.611300
C37    C    0.250000    0.611300    0.250000
C38    C    0.750000    0.611300    0.750000
C39    C    0.750000    0.388700    0.250000
C40    C    0.250000    0.388700    0.750000
C41    C    0.611300    0.250000    0.750000
C42    C    0.611300    0.750000    0.250000
C43    C    0.388700    0.750000    0.750000
C44    C    0.388700    0.250000    0.250000
C45    C    0.611300    0.250000    0.250000
C46    C    0.611300    0.750000    0.750000
C47    C    0.388700    0.250000    0.750000
C48    C    0.388700    0.750000    0.250000
C49    C    0.250000    0.250000    0.053800
C50    C    0.750000    0.750000    0.053800
C51    C    0.750000    0.250000    0.946200
C52    C    0.250000    0.750000    0.946200
C53    C    0.053800    0.250000    0.250000
C54    C    0.053800    0.750000    0.750000
C55    C    0.946200    0.750000    0.250000
C56    C    0.946200    0.250000    0.750000
C57    C    0.250000    0.053800    0.250000
C58    C    0.750000    0.053800    0.750000
C59    C    0.250000    0.946200    0.750000
C60    C    0.750000    0.946200    0.250000
C61    C    0.250000    0.250000    0.946200
C62    C    0.750000    0.750000    0.946200
C63    C    0.250000    0.750000    0.053800
C64    C    0.750000    0.250000    0.053800
C65    C    0.250000    0.053800    0.750000
C66    C    0.750000    0.053800    0.250000
C67    C    0.750000    0.946200    0.750000
C68    C    0.250000    0.946200    0.250000
C69    C    0.053800    0.250000    0.750000
C70    C    0.053800    0.750000    0.250000
C71    C    0.946200    0.250000    0.250000
C72    C    0.946200    0.750000    0.750000
C73    C    0.250000    0.750000    0.553800
C74    C    0.750000    0.250000    0.553800
C75    C    0.750000    0.750000    0.446200
C76    C    0.250000    0.250000    0.446200
C77    C    0.250000    0.553800    0.750000
C78    C    0.750000    0.553800    0.250000
C79    C    0.250000    0.446200    0.250000
C80    C    0.750000    0.446200    0.750000
C81    C    0.250000    0.750000    0.446200
C82    C    0.750000    0.250000    0.446200
C83    C    0.250000    0.250000    0.553800
C84    C    0.750000    0.750000    0.553800
C85    C    0.250000    0.553800    0.250000
C86    C    0.750000    0.553800    0.750000
C87    C    0.750000    0.446200    0.250000
C88    C    0.250000    0.446200    0.750000
C89    C    0.553800    0.250000    0.750000
C90    C    0.553800    0.750000    0.250000
C91    C    0.446200    0.750000    0.750000
C92    C    0.446200    0.250000    0.250000
C93    C    0.553800    0.250000    0.250000
C94    C    0.553800    0.750000    0.750000
C95    C    0.446200    0.250000    0.750000
C96    C    0.446200    0.750000    0.250000
C97    C    0.282900    0.217100    0.026900
C98    C    0.717100    0.782900    0.026900
C99    C    0.717100    0.217100    0.973100
C100    C    0.282900    0.782900    0.973100
C101    C    0.026900    0.282900    0.217100
C102    C    0.026900    0.717100    0.782900
C103    C    0.973100    0.717100    0.217100
C104    C    0.973100    0.282900    0.782900
C105    C    0.217100    0.026900    0.282900
C106    C    0.782900    0.026900    0.717100
C107    C    0.217100    0.973100    0.717100
C108    C    0.782900    0.973100    0.282900
C109    C    0.217100    0.282900    0.973100
C110    C    0.782900    0.717100    0.973100
C111    C    0.217100    0.717100    0.026900
C112    C    0.782900    0.282900    0.026900
C113    C    0.282900    0.026900    0.782900
C114    C    0.717100    0.026900    0.217100
C115    C    0.717100    0.973100    0.782900
C116    C    0.282900    0.973100    0.217100
C117    C    0.026900    0.217100    0.717100
C118    C    0.026900    0.782900    0.282900
C119    C    0.973100    0.217100    0.282900
C120    C    0.973100    0.782900    0.717100
C121    C    0.282900    0.717100    0.526900
C122    C    0.717100    0.282900    0.526900
C123    C    0.717100    0.717100    0.473100
C124    C    0.282900    0.282900    0.473100
C125    C    0.026900    0.782900    0.717100
C126    C    0.026900    0.217100    0.282900
C127    C    0.973100    0.217100    0.717100
C128    C    0.973100    0.782900    0.282900
C129    C    0.217100    0.526900    0.782900
C130    C    0.782900    0.526900    0.217100
C131    C    0.217100    0.473100    0.217100
C132    C    0.782900    0.473100    0.782900
C133    C    0.217100    0.782900    0.473100
C134    C    0.782900    0.217100    0.473100
C135    C    0.217100    0.217100    0.526900
C136    C    0.782900    0.782900    0.526900
C137    C    0.282900    0.526900    0.282900
C138    C    0.717100    0.526900    0.717100
C139    C    0.717100    0.473100    0.282900
C140    C    0.282900    0.473100    0.717100
C141    C    0.026900    0.717100    0.217100
C142    C    0.026900    0.282900    0.782900
C143    C    0.973100    0.717100    0.782900
C144    C    0.973100    0.282900    0.217100
C145    C    0.782900    0.217100    0.526900
C146    C    0.217100    0.782900    0.526900
C147    C    0.217100    0.217100    0.473100
C148    C    0.782900    0.782900    0.473100
C149    C    0.526900    0.282900    0.717100
C150    C    0.526900    0.717100    0.282900
C151    C    0.473100    0.717100    0.717100
C152    C    0.473100    0.282900    0.282900
C153    C    0.717100    0.026900    0.782900
C154    C    0.282900    0.026900    0.217100
C155    C    0.717100    0.973100    0.217100
C156    C    0.282900    0.973100    0.782900
C157    C    0.717100    0.282900    0.473100
C158    C    0.282900    0.717100    0.473100
C159    C    0.717100    0.717100    0.526900
C160    C    0.282900    0.282900    0.526900
C161    C    0.782900    0.026900    0.282900
C162    C    0.217100    0.026900    0.717100
C163    C    0.217100    0.973100    0.282900
C164    C    0.782900    0.973100    0.717100
C165    C    0.526900    0.217100    0.217100
C166    C    0.526900    0.782900    0.782900
C167    C    0.473100    0.217100    0.782900
C168    C    0.473100    0.782900    0.217100
C169    C    0.782900    0.717100    0.026900
C170    C    0.217100    0.282900    0.026900
C171    C    0.217100    0.717100    0.973100
C172    C    0.782900    0.282900    0.973100
C173    C    0.526900    0.782900    0.217100
C174    C    0.526900    0.217100    0.782900
C175    C    0.473100    0.217100    0.217100
C176    C    0.473100    0.782900    0.782900
C177    C    0.717100    0.526900    0.282900
C178    C    0.282900    0.526900    0.717100
C179    C    0.717100    0.473100    0.717100
C180    C    0.282900    0.473100    0.282900
C181    C    0.717100    0.782900    0.973100
C182    C    0.282900    0.217100    0.973100
C183    C    0.717100    0.217100    0.026900
C184    C    0.282900    0.782900    0.026900
C185    C    0.782900    0.526900    0.782900
C186    C    0.217100    0.526900    0.217100
C187    C    0.217100    0.473100    0.782900
C188    C    0.782900    0.473100    0.217100
C189    C    0.526900    0.717100    0.717100
C190    C    0.526900    0.282900    0.282900
C191    C    0.473100    0.717100    0.282900
C192    C    0.473100    0.282900    0.717100
H1    H    0.304900    0.195100    0.044800
H2    H    0.695100    0.804900    0.044800
H3    H    0.695100    0.195100    0.955200
H4    H    0.304900    0.804900    0.955200
H5    H    0.044800    0.304900    0.195100
H6    H    0.044800    0.695100    0.804900
H7    H    0.955200    0.695100    0.195100
H8    H    0.955200    0.304900    0.804900
H9    H    0.195100    0.044800    0.304900
H10    H    0.804900    0.044800    0.695100
H11    H    0.195100    0.955200    0.695100
H12    H    0.804900    0.955200    0.304900
H13    H    0.195100    0.304900    0.955200
H14    H    0.804900    0.695100    0.955200
H15    H    0.195100    0.695100    0.044800
H16    H    0.804900    0.304900    0.044800
H17    H    0.304900    0.044800    0.804900
H18    H    0.695100    0.044800    0.195100
H19    H    0.695100    0.955200    0.804900
H20    H    0.304900    0.955200    0.195100
H21    H    0.044800    0.195100    0.695100
H22    H    0.044800    0.804900    0.304900
H23    H    0.955200    0.195100    0.304900
H24    H    0.955200    0.804900    0.695100
H25    H    0.304900    0.695100    0.544800
H26    H    0.695100    0.304900    0.544800
H27    H    0.695100    0.695100    0.455200
H28    H    0.304900    0.304900    0.455200
H29    H    0.044800    0.804900    0.695100
H30    H    0.044800    0.195100    0.304900
H31    H    0.955200    0.195100    0.695100
H32    H    0.955200    0.804900    0.304900
H33    H    0.195100    0.544800    0.804900
H34    H    0.804900    0.544800    0.195100
H35    H    0.195100    0.455200    0.195100
H36    H    0.804900    0.455200    0.804900
H37    H    0.195100    0.804900    0.455200
H38    H    0.804900    0.195100    0.455200
H39    H    0.195100    0.195100    0.544800
H40    H    0.804900    0.804900    0.544800
H41    H    0.304900    0.544800    0.304900
H42    H    0.695100    0.544800    0.695100
H43    H    0.695100    0.455200    0.304900
H44    H    0.304900    0.455200    0.695100
H45    H    0.044800    0.695100    0.195100
H46    H    0.044800    0.304900    0.804900
H47    H    0.955200    0.695100    0.804900
H48    H    0.955200    0.304900    0.195100
H49    H    0.804900    0.195100    0.544800
H50    H    0.195100    0.804900    0.544800
H51    H    0.195100    0.195100    0.455200
H52    H    0.804900    0.804900    0.455200
H53    H    0.544800    0.304900    0.695100
H54    H    0.544800    0.695100    0.304900
H55    H    0.455200    0.695100    0.695100
H56    H    0.455200    0.304900    0.304900
H57    H    0.695100    0.044800    0.804900
H58    H    0.304900    0.044800    0.195100
H59    H    0.695100    0.955200    0.195100
H60    H    0.304900    0.955200    0.804900
H61    H    0.695100    0.304900    0.455200
H62    H    0.304900    0.695100    0.455200
H63    H    0.695100    0.695100    0.544800
H64    H    0.304900    0.304900    0.544800
H65    H    0.804900    0.044800    0.304900
H66    H    0.195100    0.044800    0.695100
H67    H    0.195100    0.955200    0.304900
H68    H    0.804900    0.955200    0.695100
H69    H    0.544800    0.195100    0.195100
H70    H    0.544800    0.804900    0.804900
H71    H    0.455200    0.195100    0.804900
H72    H    0.455200    0.804900    0.195100
H73    H    0.804900    0.695100    0.044800
H74    H    0.195100    0.304900    0.044800
H75    H    0.195100    0.695100    0.955200
H76    H    0.804900    0.304900    0.955200
H77    H    0.544800    0.804900    0.195100
H78    H    0.544800    0.195100    0.804900
H79    H    0.455200    0.195100    0.195100
H80    H    0.455200    0.804900    0.804900
H81    H    0.695100    0.544800    0.304900
H82    H    0.304900    0.544800    0.695100
H83    H    0.695100    0.455200    0.695100
H84    H    0.304900    0.455200    0.304900
H85    H    0.695100    0.804900    0.955200
H86    H    0.304900    0.195100    0.955200
H87    H    0.695100    0.195100    0.044800
H88    H    0.304900    0.804900    0.044800
H89    H    0.804900    0.544800    0.804900
H90    H    0.195100    0.544800    0.195100
H91    H    0.195100    0.455200    0.804900
H92    H    0.804900    0.455200    0.195100
H93    H    0.544800    0.695100    0.695100
H94    H    0.544800    0.304900    0.304900
H95    H    0.455200    0.695100    0.304900
H96    H    0.455200    0.304900    0.695100
